Version 4
SHEET 1 1624 680
WIRE 192 160 80 160
WIRE 288 160 192 160
WIRE 464 160 288 160
WIRE 576 160 464 160
WIRE 192 176 192 160
WIRE 416 176 368 176
WIRE 80 240 80 160
WIRE 368 240 368 176
WIRE 368 240 288 240
WIRE 368 288 368 240
WIRE 80 336 80 320
WIRE 208 336 80 336
WIRE 304 336 288 336
WIRE 464 336 464 320
WIRE 464 416 464 400
WIRE 80 480 80 336
WIRE 192 512 192 240
WIRE 192 512 112 512
WIRE 464 512 464 480
WIRE 464 512 272 512
WIRE 80 592 80 544
FLAG 576 240 0
FLAG 464 592 0
FLAG 80 592 0
FLAG 368 464 0
SYMBOL voltage 576 144 R0
WINDOW 123 0 0 Left 2
WINDOW 39 0 0 Left 2
SYMATTR InstName V1
SYMATTR Value 5
SYMBOL cap 448 256 R0
SYMATTR InstName C1
SYMATTR Value 1
SYMBOL cap 448 336 R0
SYMATTR InstName C2
SYMATTR Value 1
SYMBOL cap 448 416 R0
SYMATTR InstName C3
SYMATTR Value 1
SYMBOL res 448 496 R0
SYMATTR InstName R1
SYMATTR Value 1
SYMBOL TLV431 80 512 R0
SYMATTR InstName U1
SYMBOL res 288 496 R90
WINDOW 0 0 56 VBottom 2
WINDOW 3 32 56 VTop 2
SYMATTR InstName R2
SYMATTR Value 39K
SYMBOL res 208 256 R180
WINDOW 0 36 76 Left 2
WINDOW 3 36 40 Left 2
SYMATTR InstName R3
SYMATTR Value 120K
SYMBOL pmos 416 256 M180
SYMATTR InstName M1
SYMATTR Value Si4433DY
SYMBOL res 64 224 R0
SYMATTR InstName R7
SYMATTR Value 10K
SYMBOL npn 304 288 R0
SYMATTR InstName Q1
SYMATTR Value BC847C
SYMBOL res 272 144 R0
SYMATTR InstName R4
SYMATTR Value 10K
SYMBOL res 304 320 R90
WINDOW 0 0 56 VBottom 2
WINDOW 3 32 56 VTop 2
SYMATTR InstName R5
SYMATTR Value 10K
SYMBOL res 352 368 R0
SYMATTR InstName R6
SYMATTR Value 1K
TEXT 696 176 Left 2 !.tran 0 20 1ms uic
