Version 4
SHEET 1 1624 680
WIRE 48 -16 -112 -16
WIRE 160 -16 48 -16
WIRE 352 -16 160 -16
WIRE 512 -16 352 -16
WIRE 352 32 352 -16
WIRE 48 80 48 64
WIRE 288 80 48 80
WIRE 448 128 352 128
WIRE -112 160 -112 64
WIRE 160 160 160 -16
WIRE 352 160 352 128
WIRE 448 160 448 128
WIRE 352 272 352 224
WIRE 448 272 448 224
WIRE -112 352 -112 224
WIRE 48 352 48 80
WIRE 0 384 -80 384
WIRE 160 384 160 240
WIRE 160 384 80 384
WIRE 256 384 160 384
WIRE 352 384 352 336
WIRE 352 384 336 384
WIRE 352 400 352 384
WIRE -112 480 -112 416
WIRE 48 480 48 416
WIRE 80 480 48 480
WIRE 352 496 352 480
WIRE 448 496 448 336
WIRE 448 496 352 496
WIRE 0 512 0 384
WIRE 160 512 160 384
WIRE 160 512 0 512
WIRE 352 512 352 496
FLAG 512 64 0
FLAG 48 480 0
FLAG 352 592 0
FLAG -112 480 0
SYMBOL TLV431 48 384 R0
SYMATTR InstName U1
SYMBOL res 336 496 R0
SYMATTR InstName R1
SYMATTR Value 1
SYMBOL res 64 80 R180
WINDOW 0 36 76 Left 2
WINDOW 3 36 40 Left 2
SYMATTR InstName R4
SYMATTR Value 220
SYMBOL voltage 512 -32 R0
WINDOW 123 0 0 Left 2
WINDOW 39 0 0 Left 2
SYMATTR InstName V1
SYMATTR Value 5
SYMBOL npn 288 32 R0
SYMATTR InstName Q1
SYMATTR Value 2N2222
SYMBOL res 352 368 R90
WINDOW 0 0 56 VBottom 2
WINDOW 3 32 56 VTop 2
SYMATTR InstName R2
SYMATTR Value 33K
SYMBOL res 176 256 R180
WINDOW 0 36 76 Left 2
WINDOW 3 36 40 Left 2
SYMATTR InstName R3
SYMATTR Value 120K
SYMBOL res 336 384 R0
SYMATTR InstName R5
SYMATTR Value 1.5
SYMBOL cap 432 160 R0
SYMATTR InstName C3
SYMATTR Value 100
SYMBOL cap 432 272 R0
SYMATTR InstName C4
SYMATTR Value 100
SYMBOL TLV431 -112 384 R0
SYMATTR InstName U2
SYMBOL res -96 80 R180
WINDOW 0 36 76 Left 2
WINDOW 3 36 40 Left 2
SYMATTR InstName R6
SYMATTR Value 220
SYMBOL LED -128 160 R0
SYMATTR InstName D1
SYMBOL cap 336 160 R0
SYMATTR InstName C1
SYMATTR Value 100
SYMBOL cap 336 272 R0
SYMATTR InstName C2
SYMATTR Value 100
TEXT 680 0 Left 2 !.tran 0 1k 1s uic
TEXT 520 264 Left 2 ;Either charge C1 + C2 = 2 x AAA @ 80mA, or C3+C4 = 2x AA @ 200mA
TEXT 520 296 Left 2 ;This is slow charge mode, 16hours for full charge, no overvoltage protection needed.
TEXT -472 192 Left 2 ;D1 will be on during charging.
