Version 4
SHEET 1 1624 680
WIRE -576 -16 -784 -16
WIRE -176 -16 -576 -16
WIRE 352 -16 -176 -16
WIRE 512 -16 352 -16
WIRE -784 0 -784 -16
WIRE -576 0 -576 -16
WIRE 352 16 352 -16
WIRE 288 64 -176 64
WIRE -384 80 -576 80
WIRE -256 80 -384 80
WIRE -784 128 -784 80
WIRE -576 128 -576 80
WIRE -384 160 -544 160
WIRE 352 160 352 112
WIRE -256 176 -256 80
WIRE -784 240 -784 192
WIRE 352 240 352 224
WIRE -688 272 -752 272
WIRE -256 272 -256 256
WIRE -256 272 -608 272
WIRE -48 272 -256 272
WIRE -176 352 -176 64
WIRE -48 384 -48 352
WIRE -48 384 -144 384
WIRE 16 384 16 288
WIRE 16 384 -48 384
WIRE 96 384 96 288
WIRE -784 480 -784 304
WIRE -176 480 -176 416
WIRE 96 512 96 384
WIRE 352 512 352 368
WIRE 352 512 96 512
WIRE 352 528 352 512
FLAG 512 64 0
FLAG -176 480 0
FLAG 352 608 0
FLAG -784 480 0
FLAG -384 240 0
FLAG -576 192 0
SYMBOL TLV431 -176 384 R0
SYMATTR InstName U1
SYMBOL res 336 512 R0
SYMATTR InstName R1
SYMATTR Value 1
SYMBOL res -160 80 R180
WINDOW 0 36 76 Left 2
WINDOW 3 36 40 Left 2
SYMATTR InstName R4
SYMATTR Value 220
SYMBOL voltage 512 -32 R0
WINDOW 123 0 0 Left 2
WINDOW 39 0 0 Left 2
SYMATTR InstName V1
SYMATTR Value 4.5
SYMBOL res 112 368 R90
WINDOW 0 0 56 VBottom 2
WINDOW 3 32 56 VTop 2
SYMATTR InstName R2
SYMATTR Value 68K
SYMBOL res -240 272 R180
WINDOW 0 36 76 Left 2
WINDOW 3 36 40 Left 2
SYMATTR InstName R3
SYMATTR Value 150k
SYMBOL TLV431 -784 272 R0
SYMATTR InstName U2
SYMBOL res -768 96 R180
WINDOW 0 36 76 Left 2
WINDOW 3 36 40 Left 2
SYMATTR InstName R6
SYMATTR Value 220
SYMBOL LED -800 128 R0
SYMATTR InstName D1
SYMBOL cap 336 160 R0
SYMATTR InstName C1
SYMATTR Value 1
SYMBOL cap 336 240 R0
SYMATTR InstName C2
SYMATTR Value 1
SYMBOL cap 336 304 R0
SYMATTR InstName C3
SYMATTR Value 1
SYMBOL res -32 368 R180
WINDOW 0 36 76 Left 2
WINDOW 3 36 40 Left 2
SYMATTR InstName R5
SYMATTR Value 1K
SYMBOL res -592 256 R90
WINDOW 0 0 56 VBottom 2
WINDOW 3 32 56 VTop 2
SYMATTR InstName R7
SYMATTR Value 150K
SYMBOL TLV431 -576 160 R0
SYMATTR InstName U3
SYMBOL res -368 256 R180
WINDOW 0 36 76 Left 2
WINDOW 3 36 40 Left 2
SYMATTR InstName R8
SYMATTR Value 68K
SYMBOL res -560 96 R180
WINDOW 0 36 76 Left 2
WINDOW 3 36 40 Left 2
SYMATTR InstName R9
SYMATTR Value 220
SYMBOL res -400 64 R0
SYMATTR InstName R10
SYMATTR Value 150K
SYMBOL res 112 272 R90
WINDOW 0 0 56 VBottom 2
WINDOW 3 32 56 VTop 2
SYMATTR InstName R11
SYMATTR Value 390K
SYMBOL npn 288 16 R0
SYMATTR InstName Q1
SYMATTR Value 2N2222
TEXT 680 0 Left 2 !.tran 0 20 1ms uic
TEXT -872 72 VRight 2 ;D1 will be on during charging.
