Version 4
SHEET 1 1624 680
WIRE -400 -16 -800 -16
WIRE 32 -16 -400 -16
WIRE 96 -16 32 -16
WIRE 352 -16 96 -16
WIRE 400 -16 352 -16
WIRE -800 0 -800 -16
WIRE -608 80 -800 80
WIRE -480 80 -608 80
WIRE -400 80 -400 64
WIRE -96 80 -400 80
WIRE 32 112 32 -16
WIRE -800 128 -800 80
WIRE 352 144 352 -16
WIRE 352 144 256 144
WIRE -608 160 -768 160
WIRE 96 160 96 64
WIRE 352 160 352 144
WIRE -480 176 -480 80
WIRE 32 208 -240 208
WIRE 96 224 96 160
WIRE 352 240 352 224
WIRE 256 256 256 224
WIRE 256 256 128 256
WIRE -480 272 -480 256
WIRE -272 272 -480 272
WIRE 256 272 256 256
WIRE -400 352 -400 80
WIRE 96 368 96 288
WIRE 256 368 256 352
WIRE 256 368 96 368
WIRE 352 368 256 368
WIRE -272 384 -272 352
WIRE -272 384 -368 384
WIRE -240 384 -240 208
WIRE -240 384 -272 384
WIRE -208 384 -208 288
WIRE -208 384 -240 384
WIRE -128 384 -128 288
WIRE 352 400 352 368
WIRE -400 480 -400 416
WIRE -96 480 -96 80
WIRE 304 480 -96 480
WIRE -128 512 -128 384
WIRE 352 512 352 496
WIRE 352 512 -128 512
WIRE 352 528 352 512
FLAG 400 64 0
FLAG -400 480 0
FLAG 352 608 0
FLAG -608 240 0
FLAG -800 192 0
SYMBOL TLV431 -400 384 R0
SYMATTR InstName U1
SYMBOL res 336 512 R0
SYMATTR InstName R1
SYMATTR Value 1
SYMBOL res -384 80 R180
WINDOW 0 36 76 Left 2
WINDOW 3 36 40 Left 2
SYMATTR InstName R4
SYMATTR Value 15K
SYMBOL voltage 400 -32 R0
WINDOW 123 0 0 Left 2
WINDOW 39 0 0 Left 2
SYMATTR InstName V1
SYMATTR Value 4.5
SYMBOL res -112 368 R90
WINDOW 0 0 56 VBottom 2
WINDOW 3 32 56 VTop 2
SYMATTR InstName R2
SYMATTR Value 68K
SYMBOL res -464 272 R180
WINDOW 0 36 76 Left 2
WINDOW 3 36 40 Left 2
SYMATTR InstName R3
SYMATTR Value 150k
SYMBOL cap 368 160 M0
SYMATTR InstName C1
SYMATTR Value 1
SYMBOL cap 368 240 M0
SYMATTR InstName C2
SYMATTR Value 1
SYMBOL cap 368 304 M0
SYMATTR InstName C3
SYMATTR Value 1
SYMBOL res -256 368 R180
WINDOW 0 36 76 Left 2
WINDOW 3 36 40 Left 2
SYMATTR InstName R5
SYMATTR Value 1K
SYMBOL TLV431 -800 160 R0
SYMATTR InstName U3
SYMBOL res -592 256 R180
WINDOW 0 36 76 Left 2
WINDOW 3 36 40 Left 2
SYMATTR InstName R8
SYMATTR Value 68K
SYMBOL res -784 96 R180
WINDOW 0 36 76 Left 2
WINDOW 3 36 40 Left 2
SYMATTR InstName R9
SYMATTR Value 220
SYMBOL res -624 64 R0
SYMATTR InstName R10
SYMATTR Value 150K
SYMBOL res -112 272 R90
WINDOW 0 0 56 VBottom 2
WINDOW 3 32 56 VTop 2
SYMATTR InstName R11
SYMATTR Value 390K
SYMBOL PSMN069-100YS 304 400 R0
SYMATTR InstName U2
SYMBOL TLV431 96 256 R0
SYMATTR InstName U4
SYMBOL res 272 128 M0
SYMATTR InstName R6
SYMATTR Value 36K
SYMBOL res 272 256 M0
SYMATTR InstName R7
SYMATTR Value 15K
SYMBOL pnp 96 208 R180
SYMATTR InstName Q1
SYMATTR Value BC857B
SYMBOL res 112 -32 M0
SYMATTR InstName R12
SYMATTR Value 1K
TEXT 568 0 Left 2 !.tran 0 20 1ms uic
