Version 4
SHEET 1 1624 680
WIRE 192 160 80 160
WIRE 464 160 192 160
WIRE 576 160 464 160
WIRE 464 240 464 224
WIRE 464 320 464 304
WIRE 80 464 80 240
WIRE 416 464 80 464
WIRE 80 480 80 464
WIRE 192 512 192 240
WIRE 192 512 112 512
WIRE 464 512 464 480
WIRE 464 512 272 512
WIRE 80 592 80 544
FLAG 576 240 0
FLAG 464 592 0
FLAG 80 592 0
SYMBOL voltage 576 144 R0
WINDOW 123 0 0 Left 2
WINDOW 39 0 0 Left 2
SYMATTR InstName V1
SYMATTR Value 5
SYMBOL cap 448 160 R0
SYMATTR InstName C1
SYMATTR Value 1
SYMBOL cap 448 240 R0
SYMATTR InstName C2
SYMATTR Value 1
SYMBOL cap 448 320 R0
SYMATTR InstName C3
SYMATTR Value 1
SYMBOL res 448 496 R0
SYMATTR InstName R1
SYMATTR Value 1
SYMBOL TLV431 80 512 R0
SYMATTR InstName U1
SYMBOL res 288 496 R90
WINDOW 0 0 56 VBottom 2
WINDOW 3 32 56 VTop 2
SYMATTR InstName R2
SYMATTR Value 33K
SYMBOL res 208 256 R180
WINDOW 0 36 76 Left 2
WINDOW 3 36 40 Left 2
SYMATTR InstName R3
SYMATTR Value 120K
SYMBOL res 96 256 R180
WINDOW 0 36 76 Left 2
WINDOW 3 36 40 Left 2
SYMATTR InstName R4
SYMATTR Value 33K
SYMBOL PSMN069-100YS 416 384 R0
SYMATTR InstName U2
TEXT 696 176 Left 2 !.tran 0 20 1ms uic
